/*--------------------------------*- C++ -*----------------------------------*\
  =========                 |
  \\      /  F ield         | OpenFOAM: The Open Source CFD Toolbox
   \\    /   O peration     | Website:  https://openfoam.org
    \\  /    A nd           | Version:  11
     \\/     M anipulation  |
\*---------------------------------------------------------------------------*/
FoamFile
{
    format      ascii;
    class       volScalarField;
    object      alpha.water;
}
// * * * * * * * * * * * * * * * * * * * * * * * * * * * * * * * * * * * * * //

dimensions      [0 0 0 0 0 0 0];

internalField   uniform 0;

boundaryField
{
    inletAir
    {
        type            inletOutlet;
        phi             phi.water;
        inletValue      uniform 0;
        value           uniform 0;
    }
    
    inletWater
    {
        type            fixedValue;
        value           uniform 0.6;
    }
    
    bottom
    {
        type            zeroGradient;
    }
    
    sym
    {
    	type		symmetry;
    }
    
    walls
    {
        type            zeroGradient;
    }
}

// ************************************************************************* //
